/*--------------------------------*- C++ -*----------------------------------*\
| =========                 |                                                 |
| \\      /  F ield         | OpenFOAM: The Open Source CFD Toolbox           |
|  \\    /   O peration     | Version:  v2006                                 |
|   \\  /    A nd           | Website:  www.openfoam.com                      |
|    \\/     M anipulation  |                                                 |
\*---------------------------------------------------------------------------*/
FoamFile
{
    version     2.0;
    format      ascii;
    class       polyBoundaryMesh;
    location    "constant/polyMesh";
    object      boundary;
}
// * * * * * * * * * * * * * * * * * * * * * * * * * * * * * * * * * * * * * //


3
(
    valve
    {
        type            wall;
        nFaces          200;
        startFace       8690;
    }

    sides
    {
        type            overset;
        nFaces          420;
        startFace       8890;
    }

    frontAndBack2
    {
        type            empty;
        nFaces          9000;
        startFace       9310;
    }

)


// ************************************************************************* //
